42
Coordinates from ORCA-job NMU-1_ES
  C   -6.56158123625696     -1.48119619033453     -0.14330629272972
  C   -6.53799054812605     -2.59280445360835     -1.17814081077231
  C   -5.56488928199190     -3.67780870280229     -0.73465077018323
  H   -6.23591109125885     -2.18302965453777     -2.14550550008738
  H   -7.54591465009978     -2.99425998208802     -1.28865320266025
  C   -4.21950617567578     -3.09144431684412     -0.39293759754157
  H   -5.44609278599897     -4.43922050041694     -1.50718462150461
  H   -5.97276392180609     -4.18716633877340      0.14627222217038
  C   -4.11421284322847     -1.72973008399726      0.03305364593231
  N   -5.22926790007395     -0.93875651119412      0.10322618639046
  H   -6.97582759571070     -1.85909707691845      0.80372879071618
  H   -7.19497246765664     -0.65459882831025     -0.46472890731671
  C   -5.17302039128788      0.39683454240174      0.68641402378405
  C   -3.86424197170252      1.09157074253155      0.35622949429498
  H   -5.29477399096886      0.31998810811496      1.77761239828010
  H   -6.02521649935718      0.95714410801838      0.30379979168223
  C   -2.69118605551432      0.24119756794506      0.82673771872227
  H   -3.84707719970196      2.06889146588906      0.83951670787675
  H   -3.80483930787859      1.25443960938839     -0.72279464377081
  C   -2.83670655647521     -1.18889878853875      0.37899319423064
  H   -2.63199178903666      0.26946801695638      1.92120656210156
  H   -1.74855602606259      0.64710384736915      0.46078933894439
  C   -3.07793399687407     -3.85567218319136     -0.47759232831121
  C   -1.73244473680217     -2.02093831690175      0.29773004252760
  C   -1.79918167421237     -3.35722130602123     -0.13536769115483
  O   -0.52502259161304     -1.47721495724992      0.66469131957331
  C   0.67956576932772     -2.18008413214011      0.59720060563461
  C   -0.60339054465163     -4.12012552135440     -0.20256405573909
  C   0.64185743784514     -3.55646471395371      0.14949583485797
  O   1.65786795095007     -1.51755268308299      0.91736984805608
  C   1.87119041238023     -4.31566087316578      0.04645579834235
  C   3.07752358497213     -3.99763678863633      0.71543170181726
  C   1.91451881493511     -5.49237077036442     -0.75338437725169
  N   2.98126480789342     -6.26912781254528     -0.90338731548739
  C   4.10337027210935     -5.93869112264697     -0.24907547601803
  C   4.18372543486746     -4.80979531304105      0.56605787767279
  H   1.04216767336901     -5.78782266467474     -1.32287677582417
  H   5.10626676166292     -4.58071303618696      1.08424637250749
  H   4.95672155379938     -6.59460550868661     -0.38023227140347
  H   3.12477351335729     -3.12975955208128      1.35244857311052
  H   -3.15601423671858     -4.88321893258259     -0.81353134367906
  H   -0.67896592072739     -5.15930039174288     -0.48233406779075
