43
Coordinates from ORCA-job NMU-H_ES
  C   -6.61768987981473     -1.50488354359515      0.05146485214456
  C   -6.64066271383959     -2.71893591446409     -0.85441671878089
  C   -5.61979009653114     -3.73435054822502     -0.36344531710655
  H   -6.41554775819446     -2.41771239323737     -1.88010709458057
  H   -7.64535145595529     -3.14056725309749     -0.84484599935711
  C   -4.26610565528973     -3.10066166365401     -0.22847880075843
  H   -5.55480951943940     -4.59475990409410     -1.02891410783046
  H   -5.92887191869556     -4.11252311919706      0.61784044115340
  C   -4.15417472510938     -1.68849278876247      0.07637446288821
  N   -5.26370701600544     -0.94745237214609      0.20965905892610
  H   -6.98700750717321     -1.75467640971849      1.05173539183706
  H   -7.24183167717099     -0.70449854402745     -0.34045625739536
  C   -5.20853876530423      0.45725677387580      0.64676960315112
  C   -3.96437810737637      1.15199934474615      0.13182664932400
  H   -5.23773938285154      0.46365315672789      1.74114549363460
  H   -6.11279928546248      0.93978249807965      0.28535462192171
  C   -2.72564937879723      0.38232588676584      0.56617390797749
  H   -3.94158877125380      2.16811267185988      0.52422337208994
  H   -4.00923989967831      1.21709526370442     -0.95750007825442
  C   -2.86526548627591     -1.08050455504116      0.25511275904095
  H   -2.57327724805203      0.49966484916317      1.64493248956937
  H   -1.83252350773553      0.77585116297488      0.08312826034982
  C   -3.12380399992908     -3.83443678634261     -0.35757536731427
  C   -1.76103990569442     -1.89038616580578      0.13501215659944
  C   -1.84743381716399     -3.26207060560551     -0.17892895816185
  O   -0.53924528665630     -1.31151415213380      0.32759897384209
  C   0.64782981308678     -2.00495677795358      0.22028093499394
  C   -0.64498752654275     -4.00638463998752     -0.30282260521545
  C   0.56994122099214     -3.42780269580914     -0.12194280539848
  O   1.66370625506757     -1.37967131432308      0.41200911291378
  C   1.83772901635591     -4.19170718802229     -0.24402414274054
  C   2.48612570104205     -4.68246965418724      0.92118599249456
  C   2.35719627922592     -4.42624040109817     -1.48153460786617
  N   3.53960803986748     -5.13834942315829     -1.61552168562437
  C   4.20045449662056     -5.63296531084373     -0.49631162686690
  C   3.68981325544751     -5.41363991614956      0.74269268014493
  H   1.90326269690252     -4.07603182759001     -2.39459214788062
  H   4.22052312949949     -5.80772723907516      1.59833676649823
  H   5.10988540409974     -6.17938461700244     -0.68624307951565
  H   2.07489511204649     -4.50628421162679      1.90145367095340
  H   -3.18751577805849     -4.88917477196997     -0.59292834200479
  H   -0.71043304046035     -5.05924053411585     -0.54789317460536
  H   3.90620869025757     -5.31966436583722     -2.53291873519047
