42
Coordinates from ORCA-job NMU-1_GS
  C   -6.55689970346216     -1.50175041672747     -0.08447518361732
  C   -6.55861148407923     -2.65952250861828     -1.06737781823014
  C   -5.55819833140054     -3.71339924539972     -0.60890590009107
  H   -6.29408784597499     -2.29283355861290     -2.06285270710318
  H   -7.56386750456361     -3.07926455559520     -1.12680093680102
  C   -4.20401198865121     -3.10116303146516     -0.33702735534460
  H   -5.45849867274309     -4.50935381067347     -1.34884311513098
  H   -5.93417133102514     -4.18337205114837      0.30664492691194
  C   -4.09927348001054     -1.71973792780474      0.03025550495245
  N   -5.21888949166577     -0.93347383705088      0.07389020932247
  H   -6.94380429880994     -1.83407862712939      0.88844304186363
  H   -7.20948217369396     -0.70106115718296     -0.43456980216469
  C   -5.16265002074475      0.41102447794349      0.64357209495647
  C   -3.86750768920855      1.11076518937596      0.27097566909140
  H   -5.26713376440852      0.36322165000691      1.73605607478637
  H   -6.02027843472078      0.96387840196678      0.25972452426506
  C   -2.67301421988064      0.28232016047738      0.72989442247166
  H   -3.84487584119190      2.10037531368565      0.72946626458892
  H   -3.83401042534656      1.24936202086716     -0.81278529222159
  C   -2.82704411566137     -1.16588504476704      0.33052188695441
  H   -2.57228090120712      0.35389786984359      1.81843767003282
  H   -1.74935573220386      0.68427525226219      0.31251497503267
  C   -3.06635735641442     -3.86393216206944     -0.42406056642577
  C   -1.72107158763425     -1.99366092289954      0.24208820125797
  C   -1.79138907953295     -3.34137579504993     -0.13889757472579
  O   -0.50125178713682     -1.44611088226946      0.55059990349368
  C   0.69073855560867     -2.14368465914979      0.49735493590460
  C   -0.59033531529371     -4.08268240551589     -0.19987151478382
  C   0.62959347330154     -3.53709256643522      0.10105239600504
  O   1.68998035047690     -1.50682773050177      0.78187026792714
  C   1.87952698324270     -4.31758436001273      0.00507687902786
  C   2.90132728000019     -4.24010827933194      0.95636761305984
  C   2.08037898817341     -5.19846934534883     -1.06510265467946
  N   3.16100169624308     -5.96592081293463     -1.21576860061846
  C   4.11842633917390     -5.88021346369174     -0.28696048922190
  C   4.03042710252724     -5.03090442457607      0.80871978292016
  H   1.32979178098827     -5.27329613936629     -1.84514205029545
  H   4.83115939919770     -4.99562517633109      1.53573482562762
  H   4.98882548026493     -6.51198621247112     -0.42716396010425
  H   2.80645646885497     -3.57682502967540      1.80410871567881
  H   -3.14599955419822     -4.90579379553451     -0.71374608666526
  H   -0.65196176718884     -5.12748040108806     -0.48255917790824
