34
Coordinates from ORCA-job HBQ_ES
  C   -3.11818680003178     -0.64691144947107     -0.16351669145896
  C   -2.67386671320136     -1.73734457847490     -0.90962886189128
  C   -1.31838737667024     -1.87425014602661     -1.16846388359063
  C   -2.20935387425446      0.31919120520331      0.29236736477768
  C   -0.81951549726498      0.27718689450689     -0.03260224555590
  O   -2.63173230278326      1.24486620621036      1.19391540782718
  C   -0.37536290257394     -0.90833199995715     -0.73266322625021
  C   0.98507930402721     -1.08857426172511     -0.99741909378205
  C   1.91602619839788     -0.13072572205189     -0.60225127866193
  C   0.11895160895039      1.32983828181651      0.24573925464338
  C   1.52153614167448      1.08204499715188     -0.01053316734598
  N   -0.30503540869976      2.53023509249173      0.71937421705378
  C   0.62341557023721      3.45152619366834      1.05050418949420
  C   1.99424511093266      3.26581838407136      0.92183761369474
  C   2.46077914221201      2.07736995118517      0.35969713711105
  C   -3.82205627824517      1.94054788954020      1.00405095193605
  O   -4.33250872829208      2.04943666296115     -0.09576368350710
  N   -4.25539996813009      2.48175297716305      2.15155745340436
  C   -5.42118189030210      3.35809454785258      2.13190424005365
  C   -3.62028542472931      2.30717624797736      3.45499087425043
  H   -2.83388776787946      1.56441759965035      3.40527877145169
  H   -4.37344154976489      1.98266440655124      4.17503647873603
  H   -3.20105445562712      3.25696209059111      3.79450001871313
  H   -5.80205056695973      3.43955277791630      1.11998996336207
  H   -5.14254604155616      4.34855938145447      2.49797196825888
  H   -6.19777493143504      2.95128081673062      2.78244395217669
  H   -0.95359651610896     -2.73294090939571     -1.71819037891400
  H   -4.15600277810033     -0.56542277041889      0.12383340146179
  H   -3.37642703270220     -2.48789300987543     -1.24414240588980
  H   1.30963856235090     -1.98548671565833     -1.50916556874724
  H   2.97180210504993     -0.30706419570708     -0.77005869381962
  H   0.23782692732819      4.40026873591530      1.40985229680418
  H   2.67390205597231      4.05728537757990      1.20999926357450
  H   3.51461207817934      1.90669904057288      0.18393436062920
